/*---------------------------------------------------------------------------*\
| =========                 |                                                 |
| \\      /  F ield         | OpenFOAM: The Open Source CFD Toolbox           |
|  \\    /   O peration     | Version:  v2312                                 |
|   \\  /    A nd           | Website:  www.openfoam.com                      |
|    \\/     M anipulation  |                                                 |
\*---------------------------------------------------------------------------*/
Build  : 20231201-1234
Exec   : interFoam
Date   : May 15 2025
Time   : 10:23:41
Host   : cfd-workstation
PID    : 12345
I/O    : uncollated
Case   : /home/user/dam-break/case_001
nProcs : 1

Time = 0.001
Courant Number mean: 0.02 max: 0.18
smoothSolver:  Solving for alpha.water, Initial residual = 0.0012, Final residual = 8.12e-09, No Iterations 3
Phase-1 volume fraction = 0.0498  Min(alpha.water) = -2.14e-09  Max(alpha.water) = 1.0
MULES: Correcting alpha.water
MULES: Correcting alpha.water
PIMPLE: iteration 1
smoothSolver:  Solving for Ux, Initial residual = 0.1234, Final residual = 3.21e-07, No Iterations 8
smoothSolver:  Solving for Uy, Initial residual = 0.0891, Final residual = 2.11e-07, No Iterations 7
GAMG:  Solving for p_rgh, Initial residual = 0.4821, Final residual = 4.23e-08, No Iterations 12
time step continuity errors : sum local = 2.31e-08, global = 1.23e-09, cumulative = 1.23e-09
ExecutionTime = 0.51 s  ClockTime = 1 s

Time = 0.002
Courant Number mean: 0.03 max: 0.23
smoothSolver:  Solving for alpha.water, Initial residual = 0.0085, Final residual = 6.33e-09, No Iterations 4
PIMPLE: iteration 1
smoothSolver:  Solving for Ux, Initial residual = 0.0983, Final residual = 2.87e-07, No Iterations 7
smoothSolver:  Solving for Uy, Initial residual = 0.0712, Final residual = 1.98e-07, No Iterations 6
GAMG:  Solving for p_rgh, Initial residual = 0.3812, Final residual = 3.91e-08, No Iterations 11
time step continuity errors : sum local = 1.89e-08, global = 9.87e-10, cumulative = 2.22e-09
ExecutionTime = 1.02 s  ClockTime = 1 s

Time = 0.003
Courant Number mean: 0.04 max: 0.28
smoothSolver:  Solving for alpha.water, Initial residual = 0.0071, Final residual = 5.44e-09, No Iterations 4
PIMPLE: iteration 1
smoothSolver:  Solving for Ux, Initial residual = 0.0821, Final residual = 2.45e-07, No Iterations 7
smoothSolver:  Solving for Uy, Initial residual = 0.0634, Final residual = 1.77e-07, No Iterations 6
GAMG:  Solving for p_rgh, Initial residual = 0.3241, Final residual = 3.44e-08, No Iterations 10
time step continuity errors : sum local = 1.67e-08, global = 8.12e-10, cumulative = 3.03e-09
ExecutionTime = 1.54 s  ClockTime = 2 s

Time = 0.1
Courant Number mean: 0.12 max: 0.52
smoothSolver:  Solving for alpha.water, Initial residual = 0.0243, Final residual = 3.21e-09, No Iterations 5
PIMPLE: iteration 1
smoothSolver:  Solving for Ux, Initial residual = 0.0623, Final residual = 1.98e-07, No Iterations 7
smoothSolver:  Solving for Uy, Initial residual = 0.0511, Final residual = 1.55e-07, No Iterations 6
GAMG:  Solving for p_rgh, Initial residual = 0.2341, Final residual = 2.87e-08, No Iterations 9
time step continuity errors : sum local = 1.34e-08, global = 7.21e-10, cumulative = 4.12e-08
ExecutionTime = 52.1 s  ClockTime = 53 s

Time = 0.2
Courant Number mean: 0.18 max: 0.67
smoothSolver:  Solving for alpha.water, Initial residual = 0.0312, Final residual = 2.87e-09, No Iterations 5
PIMPLE: iteration 1
smoothSolver:  Solving for Ux, Initial residual = 0.0534, Final residual = 1.77e-07, No Iterations 7
smoothSolver:  Solving for Uy, Initial residual = 0.0423, Final residual = 1.34e-07, No Iterations 6
GAMG:  Solving for p_rgh, Initial residual = 0.1987, Final residual = 2.44e-08, No Iterations 9
time step continuity errors : sum local = 1.12e-08, global = 6.44e-10, cumulative = 8.23e-08
ExecutionTime = 104.2 s  ClockTime = 105 s

Time = 0.3
Courant Number mean: 0.23 max: 0.81
smoothSolver:  Solving for alpha.water, Initial residual = 0.0412, Final residual = 4.12e-09, No Iterations 6
PIMPLE: iteration 1
smoothSolver:  Solving for Ux, Initial residual = 0.0612, Final residual = 2.11e-07, No Iterations 7
smoothSolver:  Solving for Uy, Initial residual = 0.0534, Final residual = 1.67e-07, No Iterations 7
GAMG:  Solving for p_rgh, Initial residual = 1.23e-02, Final residual = 9.87e-06, No Iterations 1000
time step continuity errors : sum local = 2.34e-06, global = 1.12e-06, cumulative = 9.12e-07
ExecutionTime = 156.3 s  ClockTime = 157 s

Time = 0.35
Courant Number mean: 0.28 max: 0.87
smoothSolver:  Solving for alpha.water, Initial residual = 0.0523, Final residual = 5.23e-09, No Iterations 6
PIMPLE: iteration 1
smoothSolver:  Solving for Ux, Initial residual = 0.0734, Final residual = 2.45e-07, No Iterations 7
smoothSolver:  Solving for Uy, Initial residual = 0.0623, Final residual = 1.98e-07, No Iterations 7
GAMG:  Solving for p_rgh, Initial residual = 8.34e-04, Final residual = 6.12e-06, No Iterations 1000
time step continuity errors : sum local = 4.56e-06, global = 2.34e-06, cumulative = 3.25e-06
ExecutionTime = 188.4 s  ClockTime = 189 s

Time = 0.4
Courant Number mean: 0.31 max: 0.92
smoothSolver:  Solving for alpha.water, Initial residual = 0.0612, Final residual = 6.12e-09, No Iterations 7
PIMPLE: iteration 1
smoothSolver:  Solving for Ux, Initial residual = 0.0891, Final residual = 2.87e-07, No Iterations 8
smoothSolver:  Solving for Uy, Initial residual = 0.0712, Final residual = 2.23e-07, No Iterations 8
GAMG:  Solving for p_rgh, Initial residual = 1.23e-02, Final residual = 8.45e-06, No Iterations 1000
time step continuity errors : sum local = 6.78e-06, global = 3.45e-06, cumulative = 6.70e-06
ExecutionTime = 220.5 s  ClockTime = 221 s

Time = 0.45
Courant Number mean: 0.35 max: 0.94
smoothSolver:  Solving for alpha.water, Initial residual = 0.0712, Final residual = 7.12e-09, No Iterations 7
PIMPLE: iteration 1
smoothSolver:  Solving for Ux, Initial residual = 0.1012, Final residual = 3.23e-07, No Iterations 8
smoothSolver:  Solving for Uy, Initial residual = 0.0823, Final residual = 2.55e-07, No Iterations 8
GAMG:  Solving for p_rgh, Initial residual = 8.12e-04, Final residual = 7.23e-06, No Iterations 1000
time step continuity errors : sum local = 8.90e-06, global = 4.56e-06, cumulative = 1.13e-05
ExecutionTime = 252.6 s  ClockTime = 253 s

Time = 0.5
Courant Number mean: 0.38 max: 0.96
smoothSolver:  Solving for alpha.water, Initial residual = 0.0823, Final residual = 8.23e-09, No Iterations 8
PIMPLE: iteration 1
smoothSolver:  Solving for Ux, Initial residual = 0.1145, Final residual = 3.78e-07, No Iterations 9
smoothSolver:  Solving for Uy, Initial residual = 0.0923, Final residual = 2.87e-07, No Iterations 9
GAMG:  Solving for p_rgh, Initial residual = 1.45e-02, Final residual = 1.12e-05, No Iterations 1000
time step continuity errors : sum local = 1.23e-05, global = 6.23e-06, cumulative = 1.75e-05
ExecutionTime = 284.7 s  ClockTime = 285 s

Time = 0.6
Courant Number mean: 0.43 max: 1.02
smoothSolver:  Solving for alpha.water, Initial residual = 0.0934, Final residual = 9.34e-09, No Iterations 8
PIMPLE: iteration 1
smoothSolver:  Solving for Ux, Initial residual = 0.1312, Final residual = 4.23e-07, No Iterations 9
smoothSolver:  Solving for Uy, Initial residual = 0.1045, Final residual = 3.23e-07, No Iterations 9
GAMG:  Solving for p_rgh, Initial residual = 1.87e-02, Final residual = 1.45e-05, No Iterations 1000
time step continuity errors : sum local = 2.34e-05, global = 1.12e-05, cumulative = 2.87e-05
ExecutionTime = 334.2 s  ClockTime = 335 s

Time = 0.67
Courant Number mean: 0.51 max: 1.34
smoothSolver:  Solving for alpha.water, Initial residual = 0.2345, Final residual = 1.23e-08, No Iterations 10
PIMPLE: iteration 1
smoothSolver:  Solving for Ux, Initial residual = 847.3, Final residual = 847.3, No Iterations 1000
smoothSolver:  Solving for Uy, Initial residual = 423.1, Final residual = 423.1, No Iterations 1000
GAMG:  Solving for p_rgh, Initial residual = 1, Final residual = 1, No Iterations 0
time step continuity errors : sum local = 1e+10, global = nan, cumulative = nan
ExecutionTime = 355.1 s  ClockTime = 356 s

FOAM FATAL ERROR:
    Floating point exception (SIGFPE) detected in interFoam.
    Simulation aborted at Time = 0.67 s.
    Last stable Courant Number max = 1.34.
    Check: maxCo in controlDict (currently 0.9 — recommend 0.5 for VOF).
